4
Properties=species:S:1:pos:R:3:move_mask:L:1 pbc="F F F"
N        0.00000000       0.00000000       0.00000000  F
H        0.77207128       1.78344549       0.00000000  T
H        0.77207128      -0.89172275       1.54450910  T
H        0.77207128      -0.89172275      -1.54450910  T
4
Properties=species:S:1:pos:R:3:move_mask:L:1:forces:R:3 energy=-305.6250982457979 pbc="F F F"
N        0.00000000       0.00000000       0.00000000  F       0.00000000       0.00000000       0.00000000
H        0.67761157       1.90298520       0.00000000  T      -0.60488956      -3.00256511      -0.00000000
H        0.67761157      -0.95149260       1.64803352  T      -0.60487244       1.50128467      -2.60029440
H        0.67761157      -0.95149260      -1.64803352  T      -0.60487244       1.50128467       2.60029440
4
Properties=species:S:1:pos:R:3:move_mask:L:1:forces:R:3 energy=-305.4632887823718 pbc="F F F"
N        0.00000000       0.00000000       0.00000000  F       0.00000000       0.00000000       0.00000000
H        0.50820868       1.94339185       0.00000000  T      -0.19261534      -2.99680586      -0.00000000
H        0.50820868      -0.97169592       1.68302671  T      -0.19264287       1.49831526      -2.59532314
H        0.50820868      -0.97169592      -1.68302671  T      -0.19264287       1.49831526       2.59532314
4
Properties=species:S:1:pos:R:3:move_mask:L:1:forces:R:3 energy=-305.77680608077094 pbc="F F F"
N        0.00000000       0.00000000       0.00000000  F       0.00000000       0.00000000       0.00000000
H        0.28259840       1.90298520       0.00000000  T       0.38126728      -3.11111845      -0.00000000
H        0.28259840      -0.95149260       1.64803352  T       0.38128957       1.55559876      -2.69428365
H        0.28259840      -0.95149260      -1.64803352  T       0.38128957       1.55559876       2.69428365
4
Properties=species:S:1:pos:R:3:move_mask:L:1 pbc="F F F"
N        0.00000000       0.00000000       0.00000000  F
H        0.01893098       1.78344549       0.00000000  T
H        0.01893098      -0.89172275       1.54450910  T
H        0.01893098      -0.89172275      -1.54450910  T
